/*--------------------------------*- C++ -*----------------------------------*\
| =========                 |                                                 |
| \\      /  F ield         | OpenFOAM: The Open Source CFD Toolbox           |
|  \\    /   O peration     | Version:  2406                                  |
|   \\  /    A nd           | Website:  www.openfoam.com                      |
|    \\/     M anipulation  |                                                 |
\*---------------------------------------------------------------------------*/
FoamFile
{
    version     2.0;
    format      ascii;
    arch        "LSB;label=32;scalar=64";
    class       polyBoundaryMesh;
    location    "constant/polyMesh";
    object      boundary;
}
// * * * * * * * * * * * * * * * * * * * * * * * * * * * * * * * * * * * * * //

9
(
    Side1
    {
        type            empty;
        inGroups        1(empty);
        nFaces          8950;
        startFace       17636;
    }
    Inlet
    {
        type            patch;
        nFaces          49;
        startFace       26586;
    }
    Side2
    {
        type            empty;
        inGroups        1(empty);
        nFaces          8950;
        startFace       26635;
    }
    Outlet
    {
        type            patch;
        nFaces          0;
        startFace       35585;
    }
    Botwall
    {
        type            wall;
        inGroups        1(wall);
        nFaces          156;
        startFace       35585;
    }
    Cyli
    {
        type            wall;
        inGroups        1(wall);
        nFaces          111;
        startFace       35741;
    }
    procBoundary0to1
    {
        type            processor;
        inGroups        1(processor);
        nFaces          55;
        startFace       35852;
        matchTolerance  0.0001;
        transform       unknown;
        myProcNo        0;
        neighbProcNo    1;
    }
    procBoundary0to2
    {
        type            processor;
        inGroups        1(processor);
        nFaces          156;
        startFace       35907;
        matchTolerance  0.0001;
        transform       unknown;
        myProcNo        0;
        neighbProcNo    2;
    }
    procBoundary0to3
    {
        type            processor;
        inGroups        1(processor);
        nFaces          1;
        startFace       36063;
        matchTolerance  0.0001;
        transform       unknown;
        myProcNo        0;
        neighbProcNo    3;
    }
)

// ************************************************************************* //
