/*--------------------------------*- C++ -*----------------------------------*\
| =========                 |                                                 |
| \\      /  F ield         | OpenFOAM: The Open Source CFD Toolbox           |
|  \\    /   O peration     | Version:  2406                                  |
|   \\  /    A nd           | Website:  www.openfoam.com                      |
|    \\/     M anipulation  |                                                 |
\*---------------------------------------------------------------------------*/
FoamFile
{
    version     2.0;
    format      ascii;
    arch        "LSB;label=32;scalar=64";
    class       volVectorField;
    location    "0";
    object      U;
}
// * * * * * * * * * * * * * * * * * * * * * * * * * * * * * * * * * * * * * //

dimensions      [0 1 -1 0 0 0 0];

internalField   uniform (51.471881 0 0);

boundaryField
{
    Side1
    {
        type            empty;
    }
    Inlet
    {
        type            pressureDirectedInletOutletVelocity;
        inletDirection  uniform (1 0 0);
        value           uniform (51.471881 0 0);
    }
    Freestream
    {
        type            slip;
    }
    Side2
    {
        type            empty;
    }
    Outlet
    {
        type            zeroGradient;
    }
    Botwall
    {
        type            movingWallVelocity;
        value           uniform (51.471881 0 0);
    }
    Cyli
    {
        type            noSlip;
    }
    procBoundary0to1
    {
        type            processor;
        value           uniform (51.471881 0 0);
    }
    procBoundary0to2
    {
        type            processor;
        value           uniform (51.471881 0 0);
    }
}


// ************************************************************************* //
