/*--------------------------------*- C++ -*----------------------------------*\
| =========                 |                                                 |
| \\      /  F ield         | OpenFOAM: The Open Source CFD Toolbox           |
|  \\    /   O peration     | Version:  2406                                  |
|   \\  /    A nd           | Website:  www.openfoam.com                      |
|    \\/     M anipulation  |                                                 |
\*---------------------------------------------------------------------------*/
FoamFile
{
    version     2.0;
    format      ascii;
    arch        "LSB;label=32;scalar=64";
    class       polyBoundaryMesh;
    location    "constant/polyMesh";
    object      boundary;
}
// * * * * * * * * * * * * * * * * * * * * * * * * * * * * * * * * * * * * * //

9
(
    Side1
    {
        type            empty;
        inGroups        1(empty);
        nFaces          2257;
        startFace       4409;
    }
    Inlet
    {
        type            patch;
        nFaces          63;
        startFace       6666;
    }
    Side2
    {
        type            empty;
        inGroups        1(empty);
        nFaces          2257;
        startFace       6729;
    }
    Outlet
    {
        type            patch;
        nFaces          36;
        startFace       8986;
    }
    Botwall
    {
        type            wall;
        inGroups        1(wall);
        nFaces          0;
        startFace       9022;
    }
    Cyli
    {
        type            wall;
        inGroups        1(wall);
        nFaces          0;
        startFace       9022;
    }
    procBoundary3to0
    {
        type            processor;
        inGroups        1(processor);
        nFaces          3;
        startFace       9022;
        matchTolerance  0.0001;
        transform       unknown;
        myProcNo        3;
        neighbProcNo    0;
    }
    procBoundary3to1
    {
        type            processor;
        inGroups        1(processor);
        nFaces          68;
        startFace       9025;
        matchTolerance  0.0001;
        transform       unknown;
        myProcNo        3;
        neighbProcNo    1;
    }
    procBoundary3to2
    {
        type            processor;
        inGroups        1(processor);
        nFaces          40;
        startFace       9093;
        matchTolerance  0.0001;
        transform       unknown;
        myProcNo        3;
        neighbProcNo    2;
    }
)

// ************************************************************************* //
