/*--------------------------------*- C++ -*----------------------------------*\
| =========                 |                                                 |
| \\      /  F ield         | OpenFOAM: The Open Source CFD Toolbox           |
|  \\    /   O peration     | Version:  v2406                                 |
|   \\  /    A nd           | Website:  www.openfoam.com                      |
|    \\/     M anipulation  |                                                 |
\*---------------------------------------------------------------------------*/
FoamFile
{
    version     2.0;
    format      ascii;
    class       volScalarField;
    object      alphat;
}
// * * * * * * * * * * * * * * * * * * * * * * * * * * * * * * * * * * * * * //

dimensions      [1 -1 -1 0 0 0 0];

internalField   uniform 0;

boundaryField
{
    Inlet
    {
        type            calculated;
        value           uniform 0;
    }

    Cyli
    {
        type            compressible::alphatWallFunction;
        value           uniform 0;
    }

    Botwall
    {
        type            compressible::alphatWallFunction;
        value           uniform 0;
    }

    Side1
    {
        type            empty;
    }

    Side2
    {
        type            empty;
    }

    Outlet
    {
        type            zeroGradient;
    }

    #includeEtc "caseDicts/setConstraintTypes"
}


// ************************************************************************* //
