/*--------------------------------*- C++ -*----------------------------------*\
| =========                 |                                                 |
| \\      /  F ield         | OpenFOAM: The Open Source CFD Toolbox           |
|  \\    /   O peration     | Version:  2406                                  |
|   \\  /    A nd           | Website:  www.openfoam.com                      |
|    \\/     M anipulation  |                                                 |
\*---------------------------------------------------------------------------*/
FoamFile
{
    version     2.0;
    format      ascii;
    arch        "LSB;label=32;scalar=64";
    class       polyBoundaryMesh;
    location    "constant/polyMesh";
    object      boundary;
}
// * * * * * * * * * * * * * * * * * * * * * * * * * * * * * * * * * * * * * //

9
(
    Side1
    {
        type            empty;
        inGroups        1(empty);
        nFaces          23204;
        startFace       46078;
    }
    Inlet
    {
        type            patch;
        nFaces          0;
        startFace       69282;
    }
    Freestream
    {
        type            wall;
        inGroups        1(wall);
        nFaces          223;
        startFace       69282;
    }
    Side2
    {
        type            empty;
        inGroups        1(empty);
        nFaces          23204;
        startFace       69505;
    }
    Outlet
    {
        type            patch;
        nFaces          107;
        startFace       92709;
    }
    Botwall
    {
        type            wall;
        inGroups        1(wall);
        nFaces          0;
        startFace       92816;
    }
    Cyli
    {
        type            wall;
        inGroups        1(wall);
        nFaces          0;
        startFace       92816;
    }
    procBoundary3to1
    {
        type            processor;
        inGroups        1(processor);
        nFaces          222;
        startFace       92816;
        matchTolerance  0.0001;
        transform       unknown;
        myProcNo        3;
        neighbProcNo    1;
    }
    procBoundary3to2
    {
        type            processor;
        inGroups        1(processor);
        nFaces          108;
        startFace       93038;
        matchTolerance  0.0001;
        transform       unknown;
        myProcNo        3;
        neighbProcNo    2;
    }
)

// ************************************************************************* //
