/*--------------------------------*- C++ -*----------------------------------*\
| =========                 |                                                 |
| \\      /  F ield         | OpenFOAM: The Open Source CFD Toolbox           |
|  \\    /   O peration     | Version:  2406                                  |
|   \\  /    A nd           | Website:  www.openfoam.com                      |
|    \\/     M anipulation  |                                                 |
\*---------------------------------------------------------------------------*/
FoamFile
{
    version     2.0;
    format      ascii;
    arch        "LSB;label=32;scalar=64";
    class       polyBoundaryMesh;
    location    "constant/polyMesh";
    object      boundary;
}
// * * * * * * * * * * * * * * * * * * * * * * * * * * * * * * * * * * * * * //

8
(
    Side1
    {
        type            empty;
        inGroups        1(empty);
        nFaces          8951;
        startFace       17650;
    }
    Inlet
    {
        type            patch;
        nFaces          206;
        startFace       26601;
    }
    Side2
    {
        type            empty;
        inGroups        1(empty);
        nFaces          8951;
        startFace       26807;
    }
    Outlet
    {
        type            patch;
        nFaces          0;
        startFace       35758;
    }
    Botwall
    {
        type            wall;
        inGroups        1(wall);
        nFaces          0;
        startFace       35758;
    }
    Cyli
    {
        type            wall;
        inGroups        1(wall);
        nFaces          85;
        startFace       35758;
    }
    procBoundary2to0
    {
        type            processor;
        inGroups        1(processor);
        nFaces          156;
        startFace       35843;
        matchTolerance  0.0001;
        transform       unknown;
        myProcNo        2;
        neighbProcNo    0;
    }
    procBoundary2to3
    {
        type            processor;
        inGroups        1(processor);
        nFaces          57;
        startFace       35999;
        matchTolerance  0.0001;
        transform       unknown;
        myProcNo        2;
        neighbProcNo    3;
    }
)

// ************************************************************************* //
