/*--------------------------------*- C++ -*----------------------------------*\
| =========                 |                                                 |
| \\      /  F ield         | OpenFOAM: The Open Source CFD Toolbox           |
|  \\    /   O peration     | Version:  2406                                  |
|   \\  /    A nd           | Website:  www.openfoam.com                      |
|    \\/     M anipulation  |                                                 |
\*---------------------------------------------------------------------------*/
FoamFile
{
    version     2.0;
    format      ascii;
    arch        "LSB;label=32;scalar=64";
    class       polyBoundaryMesh;
    location    "constant/polyMesh";
    object      boundary;
}
// * * * * * * * * * * * * * * * * * * * * * * * * * * * * * * * * * * * * * //

9
(
    Side1
    {
        type            empty;
        inGroups        1(empty);
        nFaces          2257;
        startFace       4378;
    }
    Inlet
    {
        type            patch;
        nFaces          35;
        startFace       6635;
    }
    Side2
    {
        type            empty;
        inGroups        1(empty);
        nFaces          2257;
        startFace       6670;
    }
    Outlet
    {
        type            patch;
        nFaces          0;
        startFace       8927;
    }
    Botwall
    {
        type            wall;
        inGroups        1(wall);
        nFaces          55;
        startFace       8927;
    }
    Cyli
    {
        type            wall;
        inGroups        1(wall);
        nFaces          62;
        startFace       8982;
    }
    procBoundary0to1
    {
        type            processor;
        inGroups        1(processor);
        nFaces          55;
        startFace       9044;
        matchTolerance  0.0001;
        transform       unknown;
        myProcNo        0;
        neighbProcNo    1;
    }
    procBoundary0to2
    {
        type            processor;
        inGroups        1(processor);
        nFaces          62;
        startFace       9099;
        matchTolerance  0.0001;
        transform       unknown;
        myProcNo        0;
        neighbProcNo    2;
    }
    procBoundary0to3
    {
        type            processor;
        inGroups        1(processor);
        nFaces          3;
        startFace       9161;
        matchTolerance  0.0001;
        transform       unknown;
        myProcNo        0;
        neighbProcNo    3;
    }
)

// ************************************************************************* //
