/*--------------------------------*- C++ -*----------------------------------*\
| =========                 |                                                 |
| \\      /  F ield         | OpenFOAM: The Open Source CFD Toolbox           |
|  \\    /   O peration     | Version:  2406                                  |
|   \\  /    A nd           | Website:  www.openfoam.com                      |
|    \\/     M anipulation  |                                                 |
\*---------------------------------------------------------------------------*/
FoamFile
{
    version     2.0;
    format      ascii;
    arch        "LSB;label=32;scalar=64";
    class       polyBoundaryMesh;
    location    "constant/polyMesh";
    object      boundary;
}
// * * * * * * * * * * * * * * * * * * * * * * * * * * * * * * * * * * * * * //

9
(
    Side1
    {
        type            empty;
        inGroups        1(empty);
        nFaces          23203;
        startFace       45979;
    }
    Inlet
    {
        type            patch;
        nFaces          97;
        startFace       69182;
    }
    Freestream
    {
        type            wall;
        inGroups        1(wall);
        nFaces          0;
        startFace       69279;
    }
    Side2
    {
        type            empty;
        inGroups        1(empty);
        nFaces          23203;
        startFace       69279;
    }
    Outlet
    {
        type            patch;
        nFaces          0;
        startFace       92482;
    }
    Botwall
    {
        type            wall;
        inGroups        1(wall);
        nFaces          209;
        startFace       92482;
    }
    Cyli
    {
        type            wall;
        inGroups        1(wall);
        nFaces          196;
        startFace       92691;
    }
    procBoundary0to1
    {
        type            processor;
        inGroups        1(processor);
        nFaces          119;
        startFace       92887;
        matchTolerance  0.0001;
        transform       unknown;
        myProcNo        0;
        neighbProcNo    1;
    }
    procBoundary0to2
    {
        type            processor;
        inGroups        1(processor);
        nFaces          233;
        startFace       93006;
        matchTolerance  0.0001;
        transform       unknown;
        myProcNo        0;
        neighbProcNo    2;
    }
)

// ************************************************************************* //
