/*--------------------------------*- C++ -*----------------------------------*\
| =========                 |                                                 |
| \\      /  F ield         | OpenFOAM: The Open Source CFD Toolbox           |
|  \\    /   O peration     | Version:  2406                                  |
|   \\  /    A nd           | Website:  www.openfoam.com                      |
|    \\/     M anipulation  |                                                 |
\*---------------------------------------------------------------------------*/
FoamFile
{
    version     2.0;
    format      ascii;
    arch        "LSB;label=32;scalar=64";
    class       polyBoundaryMesh;
    location    "constant/polyMesh";
    object      boundary;
}
// * * * * * * * * * * * * * * * * * * * * * * * * * * * * * * * * * * * * * //

8
(
    Side1
    {
        type            empty;
        inGroups        1(empty);
        nFaces          2257;
        startFace       4400;
    }
    Inlet
    {
        type            patch;
        nFaces          0;
        startFace       6657;
    }
    Side2
    {
        type            empty;
        inGroups        1(empty);
        nFaces          2257;
        startFace       6657;
    }
    Outlet
    {
        type            patch;
        nFaces          34;
        startFace       8914;
    }
    Botwall
    {
        type            wall;
        inGroups        1(wall);
        nFaces          63;
        startFace       8948;
    }
    Cyli
    {
        type            wall;
        inGroups        1(wall);
        nFaces          8;
        startFace       9011;
    }
    procBoundary1to0
    {
        type            processor;
        inGroups        1(processor);
        nFaces          55;
        startFace       9019;
        matchTolerance  0.0001;
        transform       unknown;
        myProcNo        1;
        neighbProcNo    0;
    }
    procBoundary1to3
    {
        type            processor;
        inGroups        1(processor);
        nFaces          68;
        startFace       9074;
        matchTolerance  0.0001;
        transform       unknown;
        myProcNo        1;
        neighbProcNo    3;
    }
)

// ************************************************************************* //
