/*--------------------------------*- C++ -*----------------------------------*\
| =========                 |                                                 |
| \\      /  F ield         | OpenFOAM: The Open Source CFD Toolbox           |
|  \\    /   O peration     | Version:  2406                                  |
|   \\  /    A nd           | Website:  www.openfoam.com                      |
|    \\/     M anipulation  |                                                 |
\*---------------------------------------------------------------------------*/
FoamFile
{
    version     2.0;
    format      ascii;
    arch        "LSB;label=32;scalar=64";
    class       polyBoundaryMesh;
    location    "constant/polyMesh";
    object      boundary;
}
// * * * * * * * * * * * * * * * * * * * * * * * * * * * * * * * * * * * * * //

8
(
    Side1
    {
        type            empty;
        inGroups        1(empty);
        nFaces          8951;
        startFace       17669;
    }
    Inlet
    {
        type            patch;
        nFaces          0;
        startFace       26620;
    }
    Side2
    {
        type            empty;
        inGroups        1(empty);
        nFaces          8951;
        startFace       26620;
    }
    Outlet
    {
        type            patch;
        nFaces          50;
        startFace       35571;
    }
    Botwall
    {
        type            wall;
        inGroups        1(wall);
        nFaces          179;
        startFace       35621;
    }
    Cyli
    {
        type            wall;
        inGroups        1(wall);
        nFaces          0;
        startFace       35800;
    }
    procBoundary1to0
    {
        type            processor;
        inGroups        1(processor);
        nFaces          55;
        startFace       35800;
        matchTolerance  0.0001;
        transform       unknown;
        myProcNo        1;
        neighbProcNo    0;
    }
    procBoundary1to3
    {
        type            processor;
        inGroups        1(processor);
        nFaces          182;
        startFace       35855;
        matchTolerance  0.0001;
        transform       unknown;
        myProcNo        1;
        neighbProcNo    3;
    }
)

// ************************************************************************* //
